Circuit: * C:\Users\Michaël\Dropbox\Projects\ESPLogger\hardware\555timer.asc

Direct Newton iteration for .op point succeeded.
Heightened Def Con from 125.804 to 125.804

Date: Sat May 30 21:52:00 2015
Total elapsed time: 0.232 seconds.

tnom = 27
temp = 27
method = modified trap
totiter = 14392
traniter = 14370
tranpoints = 4084
accept = 3305
rejected = 780
matrix size = 25
fillins = 3
solver = Normal
Matrix Compiler1: 1,74 KB object code size  0.7/0.4/[0.2]
Matrix Compiler2: off  [0.3]/0.5/0.7


